1a3e_ligand
  Mrv2011 06102021483D          
Created by X-TOOL on Fri Nov 18 12:14:40 2016
156158  0  0  0  0            999 V2000
    8.6580  -13.2030   -2.1690 N   0  3  0  4  0  0  0  0  0  0  0  0
    7.2360  -12.9370   -2.4750 C   0  0  2  3  0  0  0  0  0  0  0  0
    6.6170  -11.9940   -1.4310 C   0  0  0  1  0  0  0  0  0  0  0  0
    6.2510  -10.8530   -1.7460 O   0  0  0  1  0  0  0  0  0  0  0  0
    6.5380  -12.5370   -0.2380 N   0  0  0  2  0  0  0  0  0  0  0  0
    5.9720  -11.9030    0.9720 C   0  0  2  2  0  0  0  0  0  0  0  0
    5.9350  -10.3600    0.9250 C   0  0  0  1  0  0  0  0  0  0  0  0
    4.8730   -9.7370    1.0600 O   0  0  0  1  0  0  0  0  0  0  0  0
    6.8080  -12.2980    2.1880 C   0  0  2  3  0  0  0  0  0  0  0  0
    8.2680  -12.5810    1.8350 C   0  5  0  1  0  0  0  0  0  0  0  0
    8.8370  -11.9310    0.8780 O   0  0  0  1  0  0  0  0  0  0  0  0
    8.9320  -13.4660    2.4960 O   0  0  0  1  0  0  0  0  0  0  0  0
    7.0900   -9.7460    0.7580 N   0  0  0  2  0  0  0  0  0  0  0  0
    7.1930   -8.2730    0.7680 C   0  0  2  2  0  0  0  0  0  0  0  0
    7.0480   -7.6830   -0.6330 C   0  0  0  1  0  0  0  0  0  0  0  0
    7.6620   -8.1490   -1.5990 O   0  0  0  1  0  0  0  0  0  0  0  0
    8.5480   -7.8470    1.3300 C   0  0  2  3  0  0  0  0  0  0  0  0
    8.5550   -7.8490    2.8520 C   0  0  0  1  0  0  0  0  0  0  0  0
    8.7790   -9.0410    3.5450 C   0  0  0  2  0  0  0  0  0  0  0  0
    8.3250   -6.6610    3.5520 C   0  0  0  2  0  0  0  0  0  0  0  0
    8.7630   -9.0490    4.9430 C   0  0  0  2  0  0  0  0  0  0  0  0
    8.3130   -6.6670    4.9500 C   0  0  0  2  0  0  0  0  0  0  0  0
    8.5290   -7.8620    5.6460 C   0  0  0  2  0  0  0  0  0  0  0  0
    6.2230   -6.6510   -0.7240 N   0  0  0  2  0  0  0  0  0  0  0  0
    6.0450   -5.9400   -1.9910 C   0  0  2  2  0  0  0  0  0  0  0  0
    7.3790   -5.2710   -2.3190 C   0  0  0  1  0  0  0  0  0  0  0  0
    8.1120   -4.8340   -1.4210 O   0  0  0  1  0  0  0  0  0  0  0  0
    4.9360   -4.9030   -1.8800 C   0  0  2  3  0  0  0  0  0  0  0  0
    4.7440   -4.0980   -3.1640 C   0  0  2  3  0  0  0  0  0  0  0  0
    3.5660   -3.1300   -3.0840 C   0  5  0  1  0  0  0  0  0  0  0  0
    2.8700   -3.0550   -2.0000 O   0  0  0  1  0  0  0  0  0  0  0  0
    3.2690   -2.3910   -4.0970 O   0  0  0  1  0  0  0  0  0  0  0  0
    7.6630   -5.2100   -3.5950 N   0  0  0  2  0  0  0  0  0  0  0  0
    8.9370   -4.6810   -4.0970 C   0  0  2  2  0  0  0  0  0  0  0  0
    9.0660   -3.1680   -3.9090 C   0  0  0  1  0  0  0  0  0  0  0  0
    8.1030   -2.4120   -4.0960 O   0  0  0  1  0  0  0  0  0  0  0  0
    9.0670   -4.9740   -5.5860 C   0  0  2  3  0  0  0  0  0  0  0  0
    9.6010   -6.3780   -5.8610 C   0  0  2  3  0  0  0  0  0  0  0  0
   10.8610   -6.6970   -5.0580 C   0  5  0  1  0  0  0  0  0  0  0  0
   11.6710   -5.7480   -4.7310 O   0  0  0  1  0  0  0  0  0  0  0  0
   11.1160   -7.9120   -4.7110 O   0  0  0  1  0  0  0  0  0  0  0  0
   10.2830   -2.7980   -3.5500 N   0  0  0  2  0  0  0  0  0  0  0  0
   10.6880   -1.4010   -3.3740 C   0  0  2  2  0  0  0  0  0  0  0  0
   11.0880   -0.8180   -4.7290 C   0  0  0  1  0  0  0  0  0  0  0  0
   11.8150   -1.4940   -5.4470 O   0  0  0  1  0  0  0  0  0  0  0  0
   11.9580   -1.3050   -2.5200 C   0  0  2  2  0  0  0  0  0  0  0  0
   11.8700   -2.0530   -1.1930 C   0  0  2  3  0  0  0  0  0  0  0  0
   12.3320    0.1380   -2.1700 C   0  0  0  4  0  0  0  0  0  0  0  0
   10.5690   -1.7860   -0.4430 C   0  0  0  4  0  0  0  0  0  0  0  0
   10.8130    0.4550   -4.9540 N   0  0  0  1  0  0  0  0  0  0  0  0
   11.2610    1.1430   -6.1500 C   0  0  2  2  0  0  0  0  0  0  0  0
   12.7360    0.8790   -6.4100 C   0  0  0  1  0  0  0  0  0  0  0  0
   13.5560    0.8130   -5.4880 O   0  0  0  1  0  0  0  0  0  0  0  0
   11.0150    2.6110   -5.8670 C   0  0  0  2  0  0  0  0  0  0  0  0
   10.2080    2.7020   -4.6270 C   0  0  0  2  0  0  0  0  0  0  0  0
    9.9640    1.3220   -4.0970 C   0  0  2  3  0  0  0  0  0  0  0  0
   13.0890    0.7540   -7.6840 N   0  0  0  2  0  0  0  0  0  0  0  0
   14.4130    0.4450   -8.1630 C   0  0  2  3  0  0  0  0  0  0  0  0
   15.5510    1.3630   -7.6980 C   0  0  0  1  0  0  0  0  0  0  0  0
   16.6920    0.8930   -7.5160 O   0  0  0  1  0  0  0  0  0  0  0  0
   15.3150    2.5800   -7.3730 N   0  0  0  2  0  0  0  0  0  0  0  0
   16.4050    3.4410   -6.8610 C   0  0  2  2  0  0  0  0  0  0  0  0
   17.2350    2.7720   -5.7180 C   0  0  0  1  0  0  0  0  0  0  0  0
   18.4730    2.7130   -5.7650 O   0  0  0  1  0  0  0  0  0  0  0  0
   15.8270    4.7200   -6.2750 C   0  0  2  3  0  0  0  0  0  0  0  0
   14.9390    5.4740   -7.2570 C   0  0  2  3  0  0  0  0  0  0  0  0
   13.4570    5.1430   -7.0970 C   0  5  0  1  0  0  0  0  0  0  0  0
   12.9590    4.9790   -5.9200 O   0  0  0  1  0  0  0  0  0  0  0  0
   12.7090    5.0310   -8.1400 O   0  0  0  1  0  0  0  0  0  0  0  0
   16.5460    2.2810   -4.6860 N   0  0  0  2  0  0  0  0  0  0  0  0
   17.2080    1.7240   -3.4720 C   0  0  2  2  0  0  0  0  0  0  0  0
   17.5700    0.2530   -3.6050 C   0  0  0  1  0  0  0  0  0  0  0  0
   18.5830   -0.1680   -3.0290 O   0  0  0  1  0  0  0  0  0  0  0  0
   16.3020    1.9140   -2.2560 C   0  0  2  3  0  0  0  0  0  0  0  0
   15.4770    3.2020   -2.3350 C   0  0  0  1  0  0  0  0  0  0  0  0
   16.0400    4.4320   -1.9600 C   0  0  0  2  0  0  0  0  0  0  0  0
   14.1570    3.1510   -2.7880 C   0  0  0  2  0  0  0  0  0  0  0  0
   15.2750    5.6050   -2.0410 C   0  0  0  2  0  0  0  0  0  0  0  0
   13.3950    4.3210   -2.8700 C   0  0  0  2  0  0  0  0  0  0  0  0
   13.9530    5.5480   -2.4960 C   0  0  0  1  0  0  0  0  0  0  0  0
   13.2090    6.6830   -2.5760 O   0  0  0  2  0  0  0  0  0  0  0  0
   16.7870   -0.5350   -4.3390 N   0  0  0  2  0  0  0  0  0  0  0  0
   17.0970   -1.9530   -4.4960 C   0  0  2  2  0  0  0  0  0  0  0  0
   16.6550   -2.4910   -5.8530 C   0  5  0  1  0  0  0  0  0  0  0  0
   15.6370   -1.9820   -6.3790 O   0  0  0  1  0  0  0  0  0  0  0  0
   16.4490   -2.7840   -3.3880 C   0  0  0  4  0  0  0  0  0  0  0  0
   17.3350   -3.4120   -6.3650 O   0  0  0  1  0  0  0  0  0  0  0  0
    9.0414  -13.8223   -2.8658 H   0  0  0  1  0  0  0  0  0  0  0  0
    8.7314  -13.6330   -1.2603 H   0  0  0  1  0  0  0  0  0  0  0  0
    9.1705  -12.3350   -2.1724 H   0  0  0  1  0  0  0  0  0  0  0  0
    6.6834  -13.8881   -2.4736 H   0  0  0  1  0  0  0  0  0  0  0  0
    7.1625  -12.4716   -3.4690 H   0  0  0  1  0  0  0  0  0  0  0  0
    6.8939  -13.4662   -0.1385 H   0  0  0  1  0  0  0  0  0  0  0  0
    4.9435  -12.2716    1.0995 H   0  0  0  1  0  0  0  0  0  0  0  0
    6.3724  -13.2038    2.6351 H   0  0  0  1  0  0  0  0  0  0  0  0
    6.7758  -11.4765    2.9188 H   0  0  0  1  0  0  0  0  0  0  0  0
    7.9168  -10.2916    0.6212 H   0  0  0  1  0  0  0  0  0  0  0  0
    6.3932   -7.8712    1.4074 H   0  0  0  1  0  0  0  0  0  0  0  0
    8.7777   -6.8317    0.9743 H   0  0  0  1  0  0  0  0  0  0  0  0
    9.3182   -8.5448    0.9696 H   0  0  0  1  0  0  0  0  0  0  0  0
    8.9651   -9.9590    2.9993 H   0  0  0  1  0  0  0  0  0  0  0  0
    8.1562   -5.7365    3.0117 H   0  0  0  1  0  0  0  0  0  0  0  0
    8.9318   -9.9742    5.4820 H   0  0  0  1  0  0  0  0  0  0  0  0
    8.1365   -5.7466    5.4947 H   0  0  0  1  0  0  0  0  0  0  0  0
    8.5150   -7.8679    6.7299 H   0  0  0  1  0  0  0  0  0  0  0  0
    5.7146   -6.3534    0.0841 H   0  0  0  1  0  0  0  0  0  0  0  0
    5.7850   -6.6566   -2.7840 H   0  0  0  1  0  0  0  0  0  0  0  0
    5.1854   -4.2084   -1.0643 H   0  0  0  1  0  0  0  0  0  0  0  0
    3.9939   -5.4203   -1.6460 H   0  0  0  1  0  0  0  0  0  0  0  0
    4.5684   -4.7975   -3.9946 H   0  0  0  1  0  0  0  0  0  0  0  0
    5.6604   -3.5212   -3.3578 H   0  0  0  1  0  0  0  0  0  0  0  0
    6.9855   -5.5366   -4.2540 H   0  0  0  1  0  0  0  0  0  0  0  0
    9.7557   -5.1764   -3.5546 H   0  0  0  1  0  0  0  0  0  0  0  0
    9.7561   -4.2411   -6.0310 H   0  0  0  1  0  0  0  0  0  0  0  0
    8.0758   -4.8759   -6.0528 H   0  0  0  1  0  0  0  0  0  0  0  0
    9.8359   -6.4617   -6.9324 H   0  0  0  1  0  0  0  0  0  0  0  0
    8.8219   -7.1087   -5.5982 H   0  0  0  1  0  0  0  0  0  0  0  0
   10.9653   -3.5112   -3.3896 H   0  0  0  1  0  0  0  0  0  0  0  0
    9.8669   -0.8263   -2.9207 H   0  0  0  1  0  0  0  0  0  0  0  0
   12.7758   -1.7442   -3.1102 H   0  0  0  1  0  0  0  0  0  0  0  0
   12.7114   -1.7396   -0.5576 H   0  0  0  1  0  0  0  0  0  0  0  0
   11.9438   -3.1321   -1.3934 H   0  0  0  1  0  0  0  0  0  0  0  0
   12.4107    0.7306   -3.0934 H   0  0  0  1  0  0  0  0  0  0  0  0
   13.2979    0.1491   -1.6438 H   0  0  0  1  0  0  0  0  0  0  0  0
   11.5561    0.5709   -1.5215 H   0  0  0  1  0  0  0  0  0  0  0  0
   10.5671   -2.3513    0.5006 H   0  0  0  1  0  0  0  0  0  0  0  0
    9.7170   -2.1033   -1.0622 H   0  0  0  1  0  0  0  0  0  0  0  0
   10.4846   -0.7109   -0.2264 H   0  0  0  1  0  0  0  0  0  0  0  0
   10.6758    0.8169   -7.0224 H   0  0  0  1  0  0  0  0  0  0  0  0
   11.3677    3.4487   -6.4668 H   0  0  0  1  0  0  0  0  0  0  0  0
    9.8495    3.6249   -4.1735 H   0  0  0  1  0  0  0  0  0  0  0  0
   10.2683    1.2483   -3.0425 H   0  0  0  1  0  0  0  0  0  0  0  0
    8.9030    1.0480   -4.1925 H   0  0  0  1  0  0  0  0  0  0  0  0
   12.3742    0.8857   -8.3708 H   0  0  0  1  0  0  0  0  0  0  0  0
   14.3855    0.4804   -9.2621 H   0  0  0  1  0  0  0  0  0  0  0  0
   14.6551   -0.5766   -7.8350 H   0  0  0  1  0  0  0  0  0  0  0  0
   14.3905    2.9497   -7.4657 H   0  0  0  1  0  0  0  0  0  0  0  0
   17.0760    3.6852   -7.6977 H   0  0  0  1  0  0  0  0  0  0  0  0
   16.6579    5.3767   -5.9778 H   0  0  0  1  0  0  0  0  0  0  0  0
   15.2291    4.4611   -5.3887 H   0  0  0  1  0  0  0  0  0  0  0  0
   15.2478    5.2135   -8.2801 H   0  0  0  1  0  0  0  0  0  0  0  0
   15.0763    6.5535   -7.0962 H   0  0  0  1  0  0  0  0  0  0  0  0
   15.5469    2.2869   -4.7287 H   0  0  0  1  0  0  0  0  0  0  0  0
   18.1383    2.2874   -3.3078 H   0  0  0  1  0  0  0  0  0  0  0  0
   16.9278    1.9508   -1.3521 H   0  0  0  1  0  0  0  0  0  0  0  0
   15.6142    1.0580   -2.1913 H   0  0  0  1  0  0  0  0  0  0  0  0
   17.0645    4.4753   -1.6083 H   0  0  0  1  0  0  0  0  0  0  0  0
   13.7215    2.2014   -3.0771 H   0  0  0  1  0  0  0  0  0  0  0  0
   15.7080    6.5556   -1.7511 H   0  0  0  1  0  0  0  0  0  0  0  0
   12.3713    4.2769   -3.2236 H   0  0  0  1  0  0  0  0  0  0  0  0
   12.4433    6.5982   -2.0202 H   0  0  0  1  0  0  0  0  0  0  0  0
   15.9791   -0.1520   -4.7869 H   0  0  0  1  0  0  0  0  0  0  0  0
   18.1884   -2.0682   -4.4213 H   0  0  0  1  0  0  0  0  0  0  0  0
   16.6992   -3.8455   -3.5318 H   0  0  0  1  0  0  0  0  0  0  0  0
   15.3571   -2.6565   -3.4249 H   0  0  0  1  0  0  0  0  0  0  0  0
   16.8246   -2.4480   -2.4103 H   0  0  0  1  0  0  0  0  0  0  0  0
  1  2  1  0  0  2  0
  2  3  1  0  0  2  0
  3  4  2  0  0  2  0
  3  5  1  0  0  2  0
  5  6  1  0  0  2  0
  6  7  1  0  0  2  0
  6  9  1  0  0  2  0
  7  8  2  0  0  2  0
  7 13  1  0  0  2  0
  9 10  1  0  0  2  0
 10 11  2  0  0  2  0
 10 12  2  0  0  2  0
 13 14  1  0  0  2  0
 14 15  1  0  0  2  0
 14 17  1  0  0  2  0
 15 16  2  0  0  2  0
 15 24  1  0  0  2  0
 17 18  1  0  0  2  0
 18 19  4  0  0  1  0
 18 20  4  0  0  1  0
 19 21  4  0  0  1  0
 20 22  4  0  0  1  0
 21 23  4  0  0  1  0
 22 23  4  0  0  1  0
 24 25  1  0  0  2  0
 25 26  1  0  0  2  0
 25 28  1  0  0  2  0
 26 27  2  0  0  2  0
 26 33  1  0  0  2  0
 28 29  1  0  0  2  0
 29 30  1  0  0  2  0
 30 31  2  0  0  2  0
 30 32  2  0  0  2  0
 33 34  1  0  0  2  0
 34 35  1  0  0  2  0
 34 37  1  0  0  2  0
 35 36  2  0  0  2  0
 35 42  1  0  0  2  0
 37 38  1  0  0  2  0
 38 39  1  0  0  2  0
 39 40  2  0  0  2  0
 39 41  2  0  0  2  0
 42 43  1  0  0  2  0
 43 44  1  0  0  2  0
 43 46  1  0  0  2  0
 44 45  2  0  0  2  0
 44 50  1  0  0  2  0
 46 47  1  0  0  2  0
 46 48  1  0  0  2  0
 47 49  1  0  0  2  0
 50 51  1  0  0  1  0
 50 56  1  0  0  1  0
 51 52  1  0  0  2  0
 51 54  1  0  0  1  0
 52 53  2  0  0  2  0
 52 57  1  0  0  2  0
 54 55  2  0  0  1  0
 55 56  1  0  0  1  0
 57 58  1  0  0  2  0
 58 59  1  0  0  2  0
 59 60  2  0  0  2  0
 59 61  1  0  0  2  0
 61 62  1  0  0  2  0
 62 63  1  0  0  2  0
 62 65  1  0  0  2  0
 63 64  2  0  0  2  0
 63 70  1  0  0  2  0
 65 66  1  0  0  2  0
 66 67  1  0  0  2  0
 67 68  2  0  0  2  0
 67 69  2  0  0  2  0
 70 71  1  0  0  2  0
 71 72  1  0  0  2  0
 71 74  1  0  0  2  0
 72 73  2  0  0  2  0
 72 82  1  0  0  2  0
 74 75  1  0  0  2  0
 75 76  4  0  0  1  0
 75 77  4  0  0  1  0
 76 78  4  0  0  1  0
 77 79  4  0  0  1  0
 78 80  4  0  0  1  0
 79 80  4  0  0  1  0
 80 81  1  0  0  2  0
 82 83  1  0  0  2  0
 83 84  1  0  0  2  0
 83 86  1  0  0  2  0
 84 85  2  0  0  2  0
 84 87  2  0  0  2  0
  1 88  1  0  0  2  0
  1 89  1  0  0  2  0
  1 90  1  0  0  2  0
  2 91  1  0  0  2  0
  2 92  1  0  0  2  0
  5 93  1  0  0  2  0
  6 94  1  0  0  2  0
  9 95  1  0  0  2  0
  9 96  1  0  0  2  0
 13 97  1  0  0  2  0
 14 98  1  0  0  2  0
 17 99  1  0  0  2  0
 17100  1  0  0  2  0
 19101  1  0  0  2  0
 20102  1  0  0  2  0
 21103  1  0  0  2  0
 22104  1  0  0  2  0
 23105  1  0  0  2  0
 24106  1  0  0  2  0
 25107  1  0  0  2  0
 28108  1  0  0  2  0
 28109  1  0  0  2  0
 29110  1  0  0  2  0
 29111  1  0  0  2  0
 33112  1  0  0  2  0
 34113  1  0  0  2  0
 37114  1  0  0  2  0
 37115  1  0  0  2  0
 38116  1  0  0  2  0
 38117  1  0  0  2  0
 42118  1  0  0  2  0
 43119  1  0  0  2  0
 46120  1  0  0  2  0
 47121  1  0  0  2  0
 47122  1  0  0  2  0
 48123  1  0  0  2  0
 48124  1  0  0  2  0
 48125  1  0  0  2  0
 49126  1  0  0  2  0
 49127  1  0  0  2  0
 49128  1  0  0  2  0
 51129  1  0  0  2  0
 54130  1  0  0  2  0
 55131  1  0  0  2  0
 56132  1  0  0  2  0
 56133  1  0  0  2  0
 57134  1  0  0  2  0
 58135  1  0  0  2  0
 58136  1  0  0  2  0
 61137  1  0  0  2  0
 62138  1  0  0  2  0
 65139  1  0  0  2  0
 65140  1  0  0  2  0
 66141  1  0  0  2  0
 66142  1  0  0  2  0
 70143  1  0  0  2  0
 71144  1  0  0  2  0
 74145  1  0  0  2  0
 74146  1  0  0  2  0
 76147  1  0  0  2  0
 77148  1  0  0  2  0
 78149  1  0  0  2  0
 79150  1  0  0  2  0
 81151  1  0  0  2  0
 82152  1  0  0  2  0
 83153  1  0  0  2  0
 86154  1  0  0  2  0
 86155  1  0  0  2  0
 86156  1  0  0  2  0
M  CHG  6   1   1  10  -1  30  -1  39  -1  67  -1  84  -1
M  MRV SMA   1 [#7H3+]
M  MRV SMA   2 [#6H2]
M  MRV SMA   3 [#6H0]
M  MRV SMA   4 [#8H0]
M  MRV SMA   5 [#7H1]
M  MRV SMA   6 [#6H1]
M  MRV SMA   7 [#6H0]
M  MRV SMA   8 [#8H0]
M  MRV SMA   9 [#6H2]
M  MRV SMA  10 [#6H0-]
M  MRV SMA  11 [#8H0]
M  MRV SMA  12 [#8H0]
M  MRV SMA  13 [#7H1]
M  MRV SMA  14 [#6H1]
M  MRV SMA  15 [#6H0]
M  MRV SMA  16 [#8H0]
M  MRV SMA  17 [#6H2]
M  MRV SMA  18 [cH0]
M  MRV SMA  19 [cH1]
M  MRV SMA  20 [cH1]
M  MRV SMA  21 [cH1]
M  MRV SMA  22 [cH1]
M  MRV SMA  23 [cH1]
M  MRV SMA  24 [#7H1]
M  MRV SMA  25 [#6H1]
M  MRV SMA  26 [#6H0]
M  MRV SMA  27 [#8H0]
M  MRV SMA  28 [#6H2]
M  MRV SMA  29 [#6H2]
M  MRV SMA  30 [#6H0-]
M  MRV SMA  31 [#8H0]
M  MRV SMA  32 [#8H0]
M  MRV SMA  33 [#7H1]
M  MRV SMA  34 [#6H1]
M  MRV SMA  35 [#6H0]
M  MRV SMA  36 [#8H0]
M  MRV SMA  37 [#6H2]
M  MRV SMA  38 [#6H2]
M  MRV SMA  39 [#6H0-]
M  MRV SMA  40 [#8H0]
M  MRV SMA  41 [#8H0]
M  MRV SMA  42 [#7H1]
M  MRV SMA  43 [#6H1]
M  MRV SMA  44 [#6H0]
M  MRV SMA  45 [#8H0]
M  MRV SMA  46 [#6H1]
M  MRV SMA  47 [#6H2]
M  MRV SMA  48 [#6H3]
M  MRV SMA  49 [#6H3]
M  MRV SMA  50 [#7H0]
M  MRV SMA  51 [#6H1]
M  MRV SMA  52 [#6H0]
M  MRV SMA  53 [#8H0]
M  MRV SMA  54 [#6H1]
M  MRV SMA  55 [#6H1]
M  MRV SMA  56 [#6H2]
M  MRV SMA  57 [#7H1]
M  MRV SMA  58 [#6H2]
M  MRV SMA  59 [#6H0]
M  MRV SMA  60 [#8H0]
M  MRV SMA  61 [#7H1]
M  MRV SMA  62 [#6H1]
M  MRV SMA  63 [#6H0]
M  MRV SMA  64 [#8H0]
M  MRV SMA  65 [#6H2]
M  MRV SMA  66 [#6H2]
M  MRV SMA  67 [#6H0-]
M  MRV SMA  68 [#8H0]
M  MRV SMA  69 [#8H0]
M  MRV SMA  70 [#7H1]
M  MRV SMA  71 [#6H1]
M  MRV SMA  72 [#6H0]
M  MRV SMA  73 [#8H0]
M  MRV SMA  74 [#6H2]
M  MRV SMA  75 [cH0]
M  MRV SMA  76 [cH1]
M  MRV SMA  77 [cH1]
M  MRV SMA  78 [cH1]
M  MRV SMA  79 [cH1]
M  MRV SMA  80 [cH0]
M  MRV SMA  81 [#8H1]
M  MRV SMA  82 [#7H1]
M  MRV SMA  83 [#6H1]
M  MRV SMA  84 [#6H0-]
M  MRV SMA  85 [#8H0]
M  MRV SMA  86 [#6H3]
M  MRV SMA  87 [#8H0]
M  MRV SMA  88 [#1H0]
M  MRV SMA  89 [#1H0]
M  MRV SMA  90 [#1H0]
M  MRV SMA  91 [#1H0]
M  MRV SMA  92 [#1H0]
M  MRV SMA  93 [#1H0]
M  MRV SMA  94 [#1H0]
M  MRV SMA  95 [#1H0]
M  MRV SMA  96 [#1H0]
M  MRV SMA  97 [#1H0]
M  MRV SMA  98 [#1H0]
M  MRV SMA  99 [#1H0]
M  MRV SMA 100 [#1H0]
M  MRV SMA 101 [#1H0]
M  MRV SMA 102 [#1H0]
M  MRV SMA 103 [#1H0]
M  MRV SMA 104 [#1H0]
M  MRV SMA 105 [#1H0]
M  MRV SMA 106 [#1H0]
M  MRV SMA 107 [#1H0]
M  MRV SMA 108 [#1H0]
M  MRV SMA 109 [#1H0]
M  MRV SMA 110 [#1H0]
M  MRV SMA 111 [#1H0]
M  MRV SMA 112 [#1H0]
M  MRV SMA 113 [#1H0]
M  MRV SMA 114 [#1H0]
M  MRV SMA 115 [#1H0]
M  MRV SMA 116 [#1H0]
M  MRV SMA 117 [#1H0]
M  MRV SMA 118 [#1H0]
M  MRV SMA 119 [#1H0]
M  MRV SMA 120 [#1H0]
M  MRV SMA 121 [#1H0]
M  MRV SMA 122 [#1H0]
M  MRV SMA 123 [#1H0]
M  MRV SMA 124 [#1H0]
M  MRV SMA 125 [#1H0]
M  MRV SMA 126 [#1H0]
M  MRV SMA 127 [#1H0]
M  MRV SMA 128 [#1H0]
M  MRV SMA 129 [#1H0]
M  MRV SMA 130 [#1H0]
M  MRV SMA 131 [#1H0]
M  MRV SMA 132 [#1H0]
M  MRV SMA 133 [#1H0]
M  MRV SMA 134 [#1H0]
M  MRV SMA 135 [#1H0]
M  MRV SMA 136 [#1H0]
M  MRV SMA 137 [#1H0]
M  MRV SMA 138 [#1H0]
M  MRV SMA 139 [#1H0]
M  MRV SMA 140 [#1H0]
M  MRV SMA 141 [#1H0]
M  MRV SMA 142 [#1H0]
M  MRV SMA 143 [#1H0]
M  MRV SMA 144 [#1H0]
M  MRV SMA 145 [#1H0]
M  MRV SMA 146 [#1H0]
M  MRV SMA 147 [#1H0]
M  MRV SMA 148 [#1H0]
M  MRV SMA 149 [#1H0]
M  MRV SMA 150 [#1H0]
M  MRV SMA 151 [#1H0]
M  MRV SMA 152 [#1H0]
M  MRV SMA 153 [#1H0]
M  MRV SMA 154 [#1H0]
M  MRV SMA 155 [#1H0]
M  MRV SMA 156 [#1H0]
M  END
>  <MOLECULAR_FORMULA>
C55H69N11O21

>  <MOLECULAR_WEIGHT>
1219.7

>  <NUM_HB_ATOMS>
31 

>  <NUM_ROTOR>
32 

>  <XLOGP2>
-4.75

$$$$
