1a4h_ligand
  Mrv2011 06102021493D          
Created by X-TOOL on Fri Nov 18 12:20:28 2016
 80 81  0  0  0  0            999 V2000
   11.8980   -4.1060   -0.0770 O   0  0  0  1  0  0  0  0  0  0  0  0
   18.3160   -2.7340   -2.3380 O   0  0  0  1  0  0  0  0  0  0  0  0
   18.3060   -4.3960   -4.5700 O   0  0  0  1  0  0  0  0  0  0  0  0
   19.8210   -3.2570   -5.7130 O   0  0  0  1  0  0  0  0  0  0  0  0
   14.6760   -1.0450   -9.5010 O   0  0  0  2  0  0  0  0  0  0  0  0
   14.5630    1.4480   -7.6390 O   0  0  0  1  0  0  0  0  0  0  0  0
   11.4380   -4.4140   -8.2560 O   0  0  0  1  0  0  0  0  0  0  0  0
   13.2010   -6.3020   -6.5970 O   0  0  0  1  0  0  0  0  0  0  0  0
   10.4770   -2.6280   -3.8990 O   0  0  0  1  0  0  0  0  0  0  0  0
   11.4190   -4.6210   -2.3080 N   0  0  0  2  0  0  0  0  0  0  0  0
   20.4610   -5.0930   -4.8510 N   0  0  0  3  0  0  0  0  0  0  0  0
   11.9460   -3.7710   -1.2720 C   0  0  0  1  0  0  0  0  0  0  0  0
   12.5870   -2.3550   -1.4050 C   0  0  0  1  0  0  0  0  0  0  0  0
   13.8180   -2.4080   -2.0340 C   0  0  0  2  0  0  0  0  0  0  0  0
   14.9020   -1.4030   -2.2370 C   0  0  0  2  0  0  0  0  0  0  0  0
   16.1950   -1.7270   -2.5680 C   0  0  0  2  0  0  0  0  0  0  0  0
   17.0050   -3.0090   -2.8250 C   0  0  1  2  0  0  0  0  0  0  0  0
   17.4520   -3.2520   -4.2950 C   0  0  2  2  0  0  0  0  0  0  0  0
   16.4810   -3.2080   -5.4570 C   0  0  0  1  0  0  0  0  0  0  0  0
   16.6800   -2.3600   -6.4830 C   0  0  0  2  0  0  0  0  0  0  0  0
   16.0410   -1.9750   -7.8000 C   0  0  1  2  0  0  0  0  0  0  0  0
   15.4340   -0.6540   -8.3270 C   0  0  2  2  0  0  0  0  0  0  0  0
   14.4320    0.0620   -7.3810 C   0  0  2  2  0  0  0  0  0  0  0  0
   12.9420   -0.2680   -7.5260 C   0  0  2  3  0  0  0  0  0  0  0  0
   12.3710   -0.8080   -6.1990 C   0  0  2  2  0  0  0  0  0  0  0  0
   11.2230   -1.8470   -6.5040 C   0  0  2  3  0  0  0  0  0  0  0  0
   11.3620   -3.2860   -6.0250 C   0  0  0  1  0  0  0  0  0  0  0  0
   11.7230   -4.3680   -6.8230 C   0  0  0  1  0  0  0  0  0  0  0  0
   12.4560   -5.5300   -6.0180 C   0  0  0  1  0  0  0  0  0  0  0  0
   12.2040   -5.6850   -4.5400 C   0  0  0  2  0  0  0  0  0  0  0  0
   11.5380   -4.7180   -3.8510 C   0  0  0  1  0  0  0  0  0  0  0  0
   11.0800   -3.4780   -4.5510 C   0  0  0  1  0  0  0  0  0  0  0  0
   12.0120   -1.0670   -0.6620 C   0  0  0  4  0  0  0  0  0  0  0  0
   18.5220   -2.7580   -0.9420 C   0  0  0  4  0  0  0  0  0  0  0  0
   19.5210   -4.1680   -5.0030 C   0  0  0  1  0  0  0  0  0  0  0  0
   15.7880   -4.5240   -5.3980 C   0  0  0  4  0  0  0  0  0  0  0  0
   17.2630   -2.2560   -8.6650 C   0  0  0  4  0  0  0  0  0  0  0  0
   15.1580    2.2530   -6.6380 C   0  0  0  4  0  0  0  0  0  0  0  0
   12.3020    0.2910   -5.0710 C   0  0  0  4  0  0  0  0  0  0  0  0
   10.6420   -5.3620   -9.1330 C   0  0  0  4  0  0  0  0  0  0  0  0
   14.2690   -0.2768   -9.8841 H   0  0  0  1  0  0  0  0  0  0  0  0
   10.8223   -5.3323   -1.9365 H   0  0  0  1  0  0  0  0  0  0  0  0
   21.3893   -4.9214   -5.1807 H   0  0  0  1  0  0  0  0  0  0  0  0
   20.2407   -5.9614   -4.4068 H   0  0  0  1  0  0  0  0  0  0  0  0
   14.0412   -3.3809   -2.4694 H   0  0  0  1  0  0  0  0  0  0  0  0
   14.6531   -0.3498   -2.1155 H   0  0  0  1  0  0  0  0  0  0  0  0
   16.8128   -0.8370   -2.6781 H   0  0  0  1  0  0  0  0  0  0  0  0
   16.5107   -3.8837   -2.3772 H   0  0  0  1  0  0  0  0  0  0  0  0
   18.0989   -2.3790   -4.4665 H   0  0  0  1  0  0  0  0  0  0  0  0
   17.5781   -1.7680   -6.3132 H   0  0  0  1  0  0  0  0  0  0  0  0
   15.2481   -2.7177   -7.9723 H   0  0  0  1  0  0  0  0  0  0  0  0
   16.2447    0.0430   -8.5856 H   0  0  0  1  0  0  0  0  0  0  0  0
   14.7272   -0.1617   -6.3452 H   0  0  0  1  0  0  0  0  0  0  0  0
   12.8155   -1.0294   -8.3098 H   0  0  0  1  0  0  0  0  0  0  0  0
   12.3961    0.6440   -7.8092 H   0  0  0  1  0  0  0  0  0  0  0  0
   13.1669   -1.4608   -5.8113 H   0  0  0  1  0  0  0  0  0  0  0  0
   11.1085   -1.8843   -7.5974 H   0  0  0  1  0  0  0  0  0  0  0  0
   10.3029   -1.4478   -6.0523 H   0  0  0  1  0  0  0  0  0  0  0  0
   12.5565   -6.5750   -4.0207 H   0  0  0  1  0  0  0  0  0  0  0  0
   11.0177   -1.2946   -0.2501 H   0  0  0  1  0  0  0  0  0  0  0  0
   11.9307   -0.2362   -1.3783 H   0  0  0  1  0  0  0  0  0  0  0  0
   12.6907   -0.7815    0.1552 H   0  0  0  1  0  0  0  0  0  0  0  0
   19.5752   -2.5283   -0.7228 H   0  0  0  1  0  0  0  0  0  0  0  0
   18.2757   -3.7567   -0.5521 H   0  0  0  1  0  0  0  0  0  0  0  0
   17.8758   -2.0077   -0.4630 H   0  0  0  1  0  0  0  0  0  0  0  0
   15.0528   -4.5881   -6.2137 H   0  0  0  1  0  0  0  0  0  0  0  0
   15.2728   -4.6241   -4.4313 H   0  0  0  1  0  0  0  0  0  0  0  0
   16.5262   -5.3323   -5.5055 H   0  0  0  1  0  0  0  0  0  0  0  0
   17.7394   -3.1906   -8.3341 H   0  0  0  1  0  0  0  0  0  0  0  0
   17.9785   -1.4260   -8.5695 H   0  0  0  1  0  0  0  0  0  0  0  0
   16.9536   -2.3544   -9.7160 H   0  0  0  1  0  0  0  0  0  0  0  0
   15.1906    3.2982   -6.9794 H   0  0  0  1  0  0  0  0  0  0  0  0
   16.1810    1.8990   -6.4428 H   0  0  0  1  0  0  0  0  0  0  0  0
   14.5647    2.1874   -5.7140 H   0  0  0  1  0  0  0  0  0  0  0  0
   13.2318    0.8788   -5.0744 H   0  0  0  1  0  0  0  0  0  0  0  0
   12.1794   -0.1955   -4.0921 H   0  0  0  1  0  0  0  0  0  0  0  0
   11.4468    0.9566   -5.2594 H   0  0  0  1  0  0  0  0  0  0  0  0
   10.6876   -5.0206  -10.1777 H   0  0  0  1  0  0  0  0  0  0  0  0
    9.5943   -5.3788   -8.7982 H   0  0  0  1  0  0  0  0  0  0  0  0
   11.0669   -6.3739   -9.0591 H   0  0  0  1  0  0  0  0  0  0  0  0
 12  1  2  0  0  2  0
 17  2  1  0  0  2  0
  2 34  1  0  0  2  0
 18  3  1  0  0  2  0
  3 35  1  0  0  2  0
 35  4  2  0  0  2  0
 22  5  1  0  0  2  0
 23  6  1  0  0  2  0
  6 38  1  0  0  2  0
 28  7  1  0  0  2  0
  7 40  1  0  0  2  0
 29  8  2  0  0  2  0
 32  9  2  0  0  2  0
 12 10  1  0  0  1  0
 10 31  1  0  0  1  0
 35 11  1  0  0  2  0
 13 12  1  0  0  1  0
 14 13  2  0  0  1  0
 13 33  1  0  0  2  0
 15 14  1  0  0  1  0
 16 15  2  0  0  1  0
 17 16  1  0  0  1  0
 18 17  1  0  0  1  0
 19 18  1  0  0  1  0
 20 19  2  0  0  1  0
 19 36  1  0  0  2  0
 21 20  1  0  0  1  0
 22 21  1  0  0  1  0
 21 37  1  0  0  2  0
 23 22  1  0  0  1  0
 24 23  1  0  0  1  0
 25 24  1  0  0  1  0
 26 25  1  0  0  1  0
 25 39  1  0  0  2  0
 27 26  1  0  0  1  0
 28 27  2  0  0  1  0
 27 32  1  0  0  1  0
 28 29  1  0  0  1  0
 29 30  1  0  0  1  0
 30 31  2  0  0  1  0
 31 32  1  0  0  1  0
  5 41  1  0  0  2  0
 10 42  1  0  0  2  0
 11 43  1  0  0  2  0
 11 44  1  0  0  2  0
 14 45  1  0  0  2  0
 15 46  1  0  0  2  0
 16 47  1  0  0  2  0
 17 48  1  0  0  2  0
 18 49  1  0  0  2  0
 20 50  1  0  0  2  0
 21 51  1  0  0  2  0
 22 52  1  0  0  2  0
 23 53  1  0  0  2  0
 24 54  1  0  0  2  0
 24 55  1  0  0  2  0
 25 56  1  0  0  2  0
 26 57  1  0  0  2  0
 26 58  1  0  0  2  0
 30 59  1  0  0  2  0
 33 60  1  0  0  2  0
 33 61  1  0  0  2  0
 33 62  1  0  0  2  0
 34 63  1  0  0  2  0
 34 64  1  0  0  2  0
 34 65  1  0  0  2  0
 36 66  1  0  0  2  0
 36 67  1  0  0  2  0
 36 68  1  0  0  2  0
 37 69  1  0  0  2  0
 37 70  1  0  0  2  0
 37 71  1  0  0  2  0
 38 72  1  0  0  2  0
 38 73  1  0  0  2  0
 38 74  1  0  0  2  0
 39 75  1  0  0  2  0
 39 76  1  0  0  2  0
 39 77  1  0  0  2  0
 40 78  1  0  0  2  0
 40 79  1  0  0  2  0
 40 80  1  0  0  2  0
M  MRV SMA   1 [#8H0]
M  MRV SMA   2 [#8H0]
M  MRV SMA   3 [#8H0]
M  MRV SMA   4 [#8H0]
M  MRV SMA   5 [#8H1]
M  MRV SMA   6 [#8H0]
M  MRV SMA   7 [#8H0]
M  MRV SMA   8 [#8H0]
M  MRV SMA   9 [#8H0]
M  MRV SMA  10 [#7H1]
M  MRV SMA  11 [#7H2]
M  MRV SMA  12 [#6H0]
M  MRV SMA  13 [#6H0]
M  MRV SMA  14 [#6H1]
M  MRV SMA  15 [#6H1]
M  MRV SMA  16 [#6H1]
M  MRV SMA  17 [#6H1]
M  MRV SMA  18 [#6H1]
M  MRV SMA  19 [#6H0]
M  MRV SMA  20 [#6H1]
M  MRV SMA  21 [#6H1]
M  MRV SMA  22 [#6H1]
M  MRV SMA  23 [#6H1]
M  MRV SMA  24 [#6H2]
M  MRV SMA  25 [#6H1]
M  MRV SMA  26 [#6H2]
M  MRV SMA  27 [#6H0]
M  MRV SMA  28 [#6H0]
M  MRV SMA  29 [#6H0]
M  MRV SMA  30 [#6H1]
M  MRV SMA  31 [#6H0]
M  MRV SMA  32 [#6H0]
M  MRV SMA  33 [#6H3]
M  MRV SMA  34 [#6H3]
M  MRV SMA  35 [#6H0]
M  MRV SMA  36 [#6H3]
M  MRV SMA  37 [#6H3]
M  MRV SMA  38 [#6H3]
M  MRV SMA  39 [#6H3]
M  MRV SMA  40 [#6H3]
M  MRV SMA  41 [#1H0]
M  MRV SMA  42 [#1H0]
M  MRV SMA  43 [#1H0]
M  MRV SMA  44 [#1H0]
M  MRV SMA  45 [#1H0]
M  MRV SMA  46 [#1H0]
M  MRV SMA  47 [#1H0]
M  MRV SMA  48 [#1H0]
M  MRV SMA  49 [#1H0]
M  MRV SMA  50 [#1H0]
M  MRV SMA  51 [#1H0]
M  MRV SMA  52 [#1H0]
M  MRV SMA  53 [#1H0]
M  MRV SMA  54 [#1H0]
M  MRV SMA  55 [#1H0]
M  MRV SMA  56 [#1H0]
M  MRV SMA  57 [#1H0]
M  MRV SMA  58 [#1H0]
M  MRV SMA  59 [#1H0]
M  MRV SMA  60 [#1H0]
M  MRV SMA  61 [#1H0]
M  MRV SMA  62 [#1H0]
M  MRV SMA  63 [#1H0]
M  MRV SMA  64 [#1H0]
M  MRV SMA  65 [#1H0]
M  MRV SMA  66 [#1H0]
M  MRV SMA  67 [#1H0]
M  MRV SMA  68 [#1H0]
M  MRV SMA  69 [#1H0]
M  MRV SMA  70 [#1H0]
M  MRV SMA  71 [#1H0]
M  MRV SMA  72 [#1H0]
M  MRV SMA  73 [#1H0]
M  MRV SMA  74 [#1H0]
M  MRV SMA  75 [#1H0]
M  MRV SMA  76 [#1H0]
M  MRV SMA  77 [#1H0]
M  MRV SMA  78 [#1H0]
M  MRV SMA  79 [#1H0]
M  MRV SMA  80 [#1H0]
M  END
>  <MOLECULAR_FORMULA>
C29H40N2O9

>  <MOLECULAR_WEIGHT>
560.3

>  <NUM_HB_ATOMS>
11 

>  <NUM_ROTOR>
5  

>  <XLOGP2>
0.27 

$$$$
